instances/data_GOC/Phase_0_RTS96/scenario_35/powersystem.raw
 0,  100.000000
rts96_spring_wday.raw / File written by to_psse.gms
5 / 19 / 2015
101, ' 101 ',138,2,1,1,1,1.00,0.00,1.1,0.9,1.1,0.9
102, ' 102 ',138,2,1,1,1,1.00,0.00,1.1,0.9,1.1,0.9
103, ' 103 ',138,1,1,1,1,1.00,0.00,1.1,0.9,1.1,0.9
104, ' 104 ',138,1,1,1,1,1.00,0.00,1.1,0.9,1.1,0.9
105, ' 105 ',138,1,1,1,1,1.00,0.00,1.1,0.9,1.1,0.9
106, ' 106 ',138,1,1,1,1,1.00,0.00,1.1,0.9,1.1,0.9
107, ' 107 ',138,2,1,1,1,1.00,0.00,1.1,0.9,1.1,0.9
108, ' 108 ',138,1,1,1,1,1.00,0.00,1.1,0.9,1.1,0.9
109, ' 109 ',138,1,1,1,1,1.00,0.00,1.1,0.9,1.1,0.9
110, ' 110 ',138,1,1,1,1,1.00,0.00,1.1,0.9,1.1,0.9
111, ' 111 ',230,1,1,1,1,1.00,0.00,1.1,0.9,1.1,0.9
112, ' 112 ',230,1,1,1,1,1.00,0.00,1.1,0.9,1.1,0.9
113, ' 113 ',230,3,1,1,1,1.00,0.00,1.1,0.9,1.1,0.9
114, ' 114 ',230,2,1,1,1,1.00,0.00,1.1,0.9,1.1,0.9
115, ' 115 ',230,2,1,1,1,1.00,0.00,1.1,0.9,1.1,0.9
116, ' 116 ',230,2,1,1,1,1.00,0.00,1.1,0.9,1.1,0.9
117, ' 117 ',230,1,1,1,1,1.00,0.00,1.1,0.9,1.1,0.9
118, ' 118 ',230,2,1,1,1,1.00,0.00,1.1,0.9,1.1,0.9
119, ' 119 ',230,1,1,1,1,1.00,0.00,1.1,0.9,1.1,0.9
120, ' 120 ',230,1,1,1,1,1.00,0.00,1.1,0.9,1.1,0.9
121, ' 121 ',230,2,1,1,1,1.00,0.00,1.1,0.9,1.1,0.9
122, ' 122 ',230,2,1,1,1,1.00,0.00,1.1,0.9,1.1,0.9
123, ' 123 ',230,2,1,1,1,1.00,0.00,1.1,0.9,1.1,0.9
124, ' 124 ',230,1,1,1,1,1.00,0.00,1.1,0.9,1.1,0.9
201, ' 201 ',138,2,1,1,1,1.00,0.00,1.1,0.9,1.1,0.9
202, ' 202 ',138,2,1,1,1,1.00,0.00,1.1,0.9,1.1,0.9
203, ' 203 ',138,1,1,1,1,1.00,0.00,1.1,0.9,1.1,0.9
204, ' 204 ',138,1,1,1,1,1.00,0.00,1.1,0.9,1.1,0.9
205, ' 205 ',138,1,1,1,1,1.00,0.00,1.1,0.9,1.1,0.9
206, ' 206 ',138,1,1,1,1,1.00,0.00,1.1,0.9,1.1,0.9
207, ' 207 ',138,2,1,1,1,1.00,0.00,1.1,0.9,1.1,0.9
208, ' 208 ',138,1,1,1,1,1.00,0.00,1.1,0.9,1.1,0.9
209, ' 209 ',138,1,1,1,1,1.00,0.00,1.1,0.9,1.1,0.9
210, ' 210 ',138,1,1,1,1,1.00,0.00,1.1,0.9,1.1,0.9
211, ' 211 ',230,1,1,1,1,1.00,0.00,1.1,0.9,1.1,0.9
212, ' 212 ',230,1,1,1,1,1.00,0.00,1.1,0.9,1.1,0.9
213, ' 213 ',230,2,1,1,1,1.00,0.00,1.1,0.9,1.1,0.9
214, ' 214 ',230,2,1,1,1,1.00,0.00,1.1,0.9,1.1,0.9
215, ' 215 ',230,2,1,1,1,1.00,0.00,1.1,0.9,1.1,0.9
216, ' 216 ',230,2,1,1,1,1.00,0.00,1.1,0.9,1.1,0.9
217, ' 217 ',230,1,1,1,1,1.00,0.00,1.1,0.9,1.1,0.9
218, ' 218 ',230,2,1,1,1,1.00,0.00,1.1,0.9,1.1,0.9
219, ' 219 ',230,1,1,1,1,1.00,0.00,1.1,0.9,1.1,0.9
220, ' 220 ',230,1,1,1,1,1.00,0.00,1.1,0.9,1.1,0.9
221, ' 221 ',230,2,1,1,1,1.00,0.00,1.1,0.9,1.1,0.9
222, ' 222 ',230,2,1,1,1,1.00,0.00,1.1,0.9,1.1,0.9
223, ' 223 ',230,2,1,1,1,1.00,0.00,1.1,0.9,1.1,0.9
224, ' 224 ',230,1,1,1,1,1.00,0.00,1.1,0.9,1.1,0.9
301, ' 301 ',138,2,1,1,1,1.00,0.00,1.1,0.9,1.1,0.9
302, ' 302 ',138,2,1,1,1,1.00,0.00,1.1,0.9,1.1,0.9
303, ' 303 ',138,1,1,1,1,1.00,0.00,1.1,0.9,1.1,0.9
304, ' 304 ',138,1,1,1,1,1.00,0.00,1.1,0.9,1.1,0.9
305, ' 305 ',138,1,1,1,1,1.00,0.00,1.1,0.9,1.1,0.9
306, ' 306 ',138,1,1,1,1,1.00,0.00,1.1,0.9,1.1,0.9
307, ' 307 ',138,2,1,1,1,1.00,0.00,1.1,0.9,1.1,0.9
308, ' 308 ',138,1,1,1,1,1.00,0.00,1.1,0.9,1.1,0.9
309, ' 309 ',138,1,1,1,1,1.00,0.00,1.1,0.9,1.1,0.9
310, ' 310 ',138,1,1,1,1,1.00,0.00,1.1,0.9,1.1,0.9
311, ' 311 ',230,1,1,1,1,1.00,0.00,1.1,0.9,1.1,0.9
312, ' 312 ',230,1,1,1,1,1.00,0.00,1.1,0.9,1.1,0.9
313, ' 313 ',230,2,1,1,1,1.00,0.00,1.1,0.9,1.1,0.9
314, ' 314 ',230,2,1,1,1,1.00,0.00,1.1,0.9,1.1,0.9
315, ' 315 ',230,2,1,1,1,1.00,0.00,1.1,0.9,1.1,0.9
316, ' 316 ',230,2,1,1,1,1.00,0.00,1.1,0.9,1.1,0.9
317, ' 317 ',230,1,1,1,1,1.00,0.00,1.1,0.9,1.1,0.9
318, ' 318 ',230,2,1,1,1,1.00,0.00,1.1,0.9,1.1,0.9
319, ' 319 ',230,1,1,1,1,1.00,0.00,1.1,0.9,1.1,0.9
320, ' 320 ',230,1,1,1,1,1.00,0.00,1.1,0.9,1.1,0.9
321, ' 321 ',230,2,1,1,1,1.00,0.00,1.1,0.9,1.1,0.9
322, ' 322 ',230,2,1,1,1,1.00,0.00,1.1,0.9,1.1,0.9
323, ' 323 ',230,2,1,1,1,1.00,0.00,1.1,0.9,1.1,0.9
324, ' 324 ',230,1,1,1,1,1.00,0.00,1.1,0.9,1.1,0.9
325, ' 325 ',230,1,1,1,1,1.00,0.00,1.1,0.9,1.1,0.9
0 / END OF BUS DATA, BEGIN LOAD DATA
101, '1 ',1,11,11,53.33850024482365,17.061916211437527,0.0,0.0,0.0,0.0,1,1,0
102, '1 ',1,11,12,71.43335364349521,17.521947535363957,0.0,0.0,0.0,0.0,1,1,0
103, '1 ',1,11,11,133.40563208760972,29.26834608474816,0.0,0.0,0.0,0.0,1,1,0
104, '1 ',1,11,11,59.97564593381295,8.173522524175699,0.0,0.0,0.0,0.0,1,1,0
105, '1 ',1,11,11,35.86293101217156,8.322530597104691,0.0,0.0,0.0,0.0,1,1,0
106, '1 ',1,11,12,74.19474073085635,18.198006071558968,0.0,0.0,0.0,0.0,1,1,0
107, '1 ',1,11,12,107.8959128181974,12.950676087598548,0.0,0.0,0.0,0.0,1,1,0
108, '1 ',1,11,12,132.60484141586772,26.409806410236282,0.0,0.0,0.0,0.0,1,1,0
109, '1 ',1,11,13,149.60496386392626,31.269526297333652,0.0,0.0,0.0,0.0,1,1,0
110, '1 ',1,11,13,111.76946584457997,28.95436823426373,0.0,0.0,0.0,0.0,1,1,0
111, '1 ',1,11,13,0.0,0.0,0.0,0.0,0.0,0.0,1,1,0
112, '1 ',1,11,13,0.0,0.0,0.0,0.0,0.0,0.0,1,1,0
113, '1 ',1,12,14,198.05545886805098,42.41785595409544,0.0,0.0,0.0,0.0,1,1,0
114, '1 ',1,12,16,99.29713448750144,20.30038785280762,0.0,0.0,0.0,0.0,1,1,0
115, '1 ',1,12,16,189.2667653543429,52.32120252437889,0.0,0.0,0.0,0.0,1,1,0
116, '1 ',1,12,16,59.55388772511855,17.458000292245302,0.0,0.0,0.0,0.0,1,1,0
117, '1 ',1,12,17,0.0,0.0,0.0,0.0,0.0,0.0,1,1,0
118, '1 ',1,12,17,205.72379062898113,59.18489389490337,0.0,0.0,0.0,0.0,1,1,0
119, '1 ',1,12,15,130.43873570142247,28.685548301326573,0.0,0.0,0.0,0.0,1,1,0
120, '1 ',1,12,15,95.49856106700898,17.363669618419,0.0,0.0,0.0,0.0,1,1,0
121, '1 ',1,12,17,0.0,0.0,0.0,0.0,0.0,0.0,1,1,0
122, '1 ',1,12,17,0.0,0.0,0.0,0.0,0.0,0.0,1,1,0
123, '1 ',1,12,15,0.0,0.0,0.0,0.0,0.0,0.0,1,1,0
124, '1 ',1,12,16,0.0,0.0,0.0,0.0,0.0,0.0,1,1,0
201, '1 ',1,21,21,80.61132465658093,14.881174649416097,0.0,0.0,0.0,0.0,1,1,0
202, '1 ',1,21,22,55.52289760807841,10.184573659476824,0.0,0.0,0.0,0.0,1,1,0
203, '1 ',1,21,21,92.10534156662877,20.806452012491363,0.0,0.0,0.0,0.0,1,1,0
204, '1 ',1,21,21,40.49143312360038,12.577074661823922,0.0,0.0,0.0,0.0,1,1,0
205, '1 ',1,21,21,47.60535828202162,8.27482324725939,0.0,0.0,0.0,0.0,1,1,0
206, '1 ',1,21,22,111.88892125700937,21.31675965940598,0.0,0.0,0.0,0.0,1,1,0
207, '1 ',1,21,22,61.2076051071519,17.045819405182264,0.0,0.0,0.0,0.0,1,1,0
208, '1 ',1,21,22,118.26021162738638,18.521246479484017,0.0,0.0,0.0,0.0,1,1,0
209, '1 ',1,21,23,104.58017985404818,25.864549471300656,0.0,0.0,0.0,0.0,1,1,0
210, '1 ',1,21,23,134.2885330223688,29.380914015457034,0.0,0.0,0.0,0.0,1,1,0
211, '1 ',1,21,23,0.0,0.0,0.0,0.0,0.0,0.0,1,1,0
212, '1 ',1,21,23,0.0,0.0,0.0,0.0,0.0,0.0,1,1,0
213, '1 ',1,22,24,217.08677468179425,45.006041560474415,0.0,0.0,0.0,0.0,1,1,0
214, '1 ',1,22,26,165.54328312050242,30.73193289860068,0.0,0.0,0.0,0.0,1,1,0
215, '1 ',1,22,26,195.7248004546688,51.02895106538236,0.0,0.0,0.0,0.0,1,1,0
216, '1 ',1,22,26,85.85098501373548,11.30842983861733,0.0,0.0,0.0,0.0,1,1,0
217, '1 ',1,22,27,0.0,0.0,0.0,0.0,0.0,0.0,1,1,0
218, '1 ',1,22,27,294.3687227381086,41.428127529893075,0.0,0.0,0.0,0.0,1,1,0
219, '1 ',1,22,25,89.10450039096926,23.86497829111372,0.0,0.0,0.0,0.0,1,1,0
220, '1 ',1,22,25,74.73503634565472,21.392863446709793,0.0,0.0,0.0,0.0,1,1,0
221, '1 ',1,22,27,0.0,0.0,0.0,0.0,0.0,0.0,1,1,0
222, '1 ',1,22,27,0.0,0.0,0.0,0.0,0.0,0.0,1,1,0
223, '1 ',1,22,25,0.0,0.0,0.0,0.0,0.0,0.0,1,1,0
224, '1 ',1,22,26,0.0,0.0,0.0,0.0,0.0,0.0,1,1,0
301, '1 ',1,31,31,65.82301080514938,16.758735213327597,0.0,0.0,0.0,0.0,1,1,0
302, '1 ',1,31,32,76.37137897074824,13.539970824695192,0.0,0.0,0.0,0.0,1,1,0
303, '1 ',1,31,31,123.63814610106031,21.410751673606455,0.0,0.0,0.0,0.0,1,1,0
304, '1 ',1,31,31,44.19255776029089,9.656494120227405,0.0,0.0,0.0,0.0,1,1,0
305, '1 ',1,31,31,41.766115635542434,7.229265260197688,0.0,0.0,0.0,0.0,1,1,0
306, '1 ',1,31,32,103.22486488546059,15.962152201944216,0.0,0.0,0.0,0.0,1,1,0
307, '1 ',1,31,32,102.53344662232557,14.467941199347841,0.0,0.0,0.0,0.0,1,1,0
308, '1 ',1,31,32,152.12895876028225,22.00607954377192,0.0,0.0,0.0,0.0,1,1,0
309, '1 ',1,31,33,121.15832333959058,31.964882622154242,0.0,0.0,0.0,0.0,1,1,0
310, '1 ',1,31,33,164.99440114044165,22.26491736787185,0.0,0.0,0.0,0.0,1,1,0
311, '1 ',1,31,33,0.0,0.0,0.0,0.0,0.0,0.0,1,1,0
312, '1 ',1,31,33,0.0,0.0,0.0,0.0,0.0,0.0,1,1,0
313, '1 ',1,32,34,233.82753042936093,41.045130977882444,0.0,0.0,0.0,0.0,1,1,0
314, '1 ',1,32,36,127.76622019492129,25.369359545654433,0.0,0.0,0.0,0.0,1,1,0
315, '1 ',1,32,36,265.95362912779666,50.33800825795233,0.0,0.0,0.0,0.0,1,1,0
316, '1 ',1,32,36,75.35008393594063,14.256192004851064,0.0,0.0,0.0,0.0,1,1,0
317, '1 ',1,32,37,0.0,0.0,0.0,0.0,0.0,0.0,1,1,0
318, '1 ',1,32,37,191.03688476833034,38.484734686062296,0.0,0.0,0.0,0.0,1,1,0
319, '1 ',1,32,35,160.61525440859913,27.496397614947007,0.0,0.0,0.0,0.0,1,1,0
320, '1 ',1,32,35,70.83492313000559,22.95887911604494,0.0,0.0,0.0,0.0,1,1,0
321, '1 ',1,32,37,0.0,0.0,0.0,0.0,0.0,0.0,1,1,0
322, '1 ',1,32,37,0.0,0.0,0.0,0.0,0.0,0.0,1,1,0
323, '1 ',1,32,35,0.0,0.0,0.0,0.0,0.0,0.0,1,1,0
324, '1 ',1,32,36,0.0,0.0,0.0,0.0,0.0,0.0,1,1,0
325, '1 ',1,32,35,0.0,0.0,0.0,0.0,0.0,0.0,1,1,0
0 / END OF LOAD DATA, BEGIN FIXED SHUNT DATA
0 / END OF FIXED SHUNT DATA, BEGIN GENERATOR DATA
101,1,10,0,12.133242428768426,0.025525623466819525,1.035,0,24,0,1,0,0,1,1,100,21.44405611604452,16.1843413661886,1,1,0,1
101,2,10,0,7.548167064320296,-5.125366161111742,1.035,0,24,0,1,0,0,1,1,100,16.351980400271714,11.679261727146805,1,1,0,1
101,3,76,14.1,24.66072368156165,-18.217737141763784,1.035,0,89,0,1,0,0,1,1,100,97.34348746333272,47.691799087114646,1,1,0,1
101,4,76,14.1,33.92012410936877,-10.936100866179906,1.035,0,89,0,1,0,0,1,1,100,84.03405506778508,25.560066898949437,1,1,0,1
102,5,10,0,7.831261918414384,-3.30941627221182,1.035,0,24,0,1,0,0,1,1,100,16.504049494862556,11.823075363850222,1,1,0,1
102,6,10,0,11.513587577734143,-1.255184791982174,1.035,0,24,0,1,0,0,1,1,100,23.000850821845233,18.79184244676493,1,1,0,1
102,7,76,7,34.10187736898661,-22.62938931258396,1.035,0,89,0,1,0,0,1,1,100,69.15041988622397,26.365415435992183,1,1,0,1
102,8,76,7,34.45929909590632,-13.555504677351564,1.035,0,89,0,1,0,0,1,1,100,65.51976150907576,14.323191363736996,1,1,0,1
107,9,80,17.2,58.716417635791004,-2.272250482812531,1.025,0,118,0,1,0,0,1,1,100,84.06820069998501,29.816840610001222,1,1,0,1
107,10,80,17.2,53.11768851522356,-22.02457162924111,1.025,0,118,0,1,0,0,1,1,100,105.21846390794963,21.296816086396575,1,1,0,1
107,11,80,17.2,65.76901053451002,15.812872387468815,1.025,0,118,0,1,0,0,1,1,100,125.83509418647738,72.96043862123044,1,1,0,1
113,12,95.1,40.7,88.68160695955157,-0.1572779305279255,1.02,0,232,0,1,0,0,1,1,100,171.47054868354462,55.68284843747503,1,1,0,1
113,13,95.1,40.7,96.48306976258755,23.017794594168663,1.02,0,232,0,1,0,0,1,1,100,214.3788037590217,101.79374045855367,1,1,0,1
113,14,95.1,40.7,62.75943801179528,-39.83999966830015,1.02,0,232,0,1,0,0,1,1,100,167.2862813231535,76.04809680627656,1,1,0,1
114,15,0,13.7,204.91295562125745,-22.086850723717333,0.98,0,100,0,1,0,0,1,1,100,0.0,0.0,1,1,0,1
115,16,12,0,6.897459041979165,-0.436943918466568,1.014,0,14,0,1,0,0,1,1,100,11.130035740323365,4.190242249575303,1,1,0,1
115,17,12,0,6.683010218571872,0.8912515218369661,1.014,0,14,0,1,0,0,1,1,100,15.216571323014797,3.651800203062594,1,1,0,1
115,18,12,0,5.804245903529226,0.6456050394102935,1.014,0,14,0,1,0,0,1,1,100,11.826559173502027,3.8661038029566397,1,1,0,1
115,19,12,0,5.621918375417589,1.0070716087706382,1.014,0,14,0,1,0,0,1,1,100,14.96939794868231,7.578273025900128,1,1,0,1
115,20,12,0,6.71033461773768,0.010648947302251521,1.014,0,14,0,1,0,0,1,1,100,9.030407277680933,0.9528325952442473,1,1,0,1
115,21,155,0.05,88.88696063682437,-17.723850823007524,1.014,0,182,0,1,0,0,1,1,100,189.98318721493706,60.02816987233237,1,1,0,1
116,22,155,25.22,78.62258865311742,-38.09680541185662,1.017,0,182,0,1,0,0,1,1,100,113.45504845492542,14.78688292670995,1,1,0,1
118,23,400,137.4,205.74733946472406,-30.071347267366946,1.05,0,471,0,1,0,0,1,1,100,508.67247588932514,190.6358693772927,1,1,0,1
121,24,400,108.2,241.69673386961225,38.29032547539106,1.05,0,471,0,1,0,0,1,1,100,508.9541785232723,275.9789359709248,1,1,0,1
122,25,50,-4.96,17.348887296766044,-4.0732495060190566,1.05,0,53,0,1,0,0,1,1,100,43.34446937544271,32.750572519545436,1,1,0,1
122,26,50,-4.96,12.810517089813947,-14.994325526524337,1.05,0,53,0,1,0,0,1,1,100,59.04261678922922,2.7279515960253846,1,1,0,1
122,27,50,-4.96,18.457448817789555,-2.9594403157010696,1.05,0,53,0,1,0,0,1,1,100,64.72595913801342,11.127270462457098,1,1,0,1
122,28,50,-4.96,14.077549147605897,-9.177404807694256,1.05,0,53,0,1,0,0,1,1,100,52.445308603346355,2.671812039334334,1,1,0,1
122,29,50,-4.96,19.469958198815583,-2.9616894627921297,1.05,0,53,0,1,0,0,1,1,100,62.21943832701072,26.29901476437226,1,1,0,1
122,30,50,-4.96,13.109700359404087,-10.373891323152929,1.05,0,53,0,1,0,0,1,1,100,47.26671328768134,41.88224064558427,1,1,0,1
123,31,155,31.79,82.06371756643057,-44.72195646679029,1.05,0,182,0,1,0,0,1,1,100,126.2941066790372,50.88630090353544,1,1,0,1
123,32,155,31.79,77.13434791564941,-36.572827857453376,1.05,0,182,0,1,0,0,1,1,100,179.8835514190141,66.41945523988689,1,1,0,1
123,33,350,71.78,183.52434060070664,32.81721534556712,1.05,0,412,0,1,0,0,1,1,100,259.8521414538845,97.86005424009633,1,1,0,1
201,34,10,0,12.36925273947418,4.796121098566802,1.035,0,24,0,1,0,0,1,1,100,22.298742742277682,18.52011531448923,1,1,0,1
201,35,10,0,7.280019004363566,-0.4008976276963949,1.035,0,24,0,1,0,0,1,1,100,15.719652290455997,11.349126132316888,1,1,0,1
201,36,76,14.1,21.175450910814106,-37.49038403085432,1.035,0,89,0,1,0,0,1,1,100,97.83075195364654,36.50557344056666,1,1,0,1
201,37,76,14.1,33.0188917927444,-7.254575041588396,1.035,0,89,0,1,0,0,1,1,100,57.934142135083675,20.507979773105294,1,1,0,1
202,38,10,0,10.054519193712622,-2.1969996043480933,1.035,0,24,0,1,0,0,1,1,100,22.198934998363256,18.458811579775066,1,1,0,1
202,39,10,0,7.6995219313539565,-0.0017506289295843303,1.035,0,24,0,1,0,0,1,1,100,24.004532996565104,19.33661901138723,1,1,0,1
202,40,76,7,37.01812220038846,-16.855572062544525,1.035,0,89,0,1,0,0,1,1,100,55.27143017183989,46.21120278309791,1,1,0,1
202,41,76,7,32.23497188044712,-21.763196180108935,1.035,0,89,0,1,0,0,1,1,100,58.06190074998885,46.89880764713426,1,1,0,1
207,42,80,17.2,66.87683853786439,21.7920346185565,1.025,0,118,0,1,0,0,1,1,100,91.2060376489535,24.42527310000858,1,1,0,1
207,43,80,17.2,64.69249722082168,-7.23120931070298,1.025,0,118,0,1,0,0,1,1,100,70.57080411352217,4.434238496469334,1,1,0,1
207,44,80,17.2,56.21589010208845,-0.12448997888714075,1.025,0,118,0,1,0,0,1,1,100,97.30698288418353,16.185879074037075,1,1,0,1
213,45,95.1,40.7,79.70362901315093,-5.75795316696167,1.02,0,232,0,1,0,0,1,1,100,240.35536617571486,121.51737188793251,1,1,0,1
213,46,95.1,40.7,62.263149559497826,-16.129889667034156,1.02,0,232,0,1,0,0,1,1,100,147.44645479558966,43.553062240220584,1,1,0,1
213,47,95.1,40.7,69.85039664432406,3.546801645308733,1.02,0,232,0,1,0,0,1,1,100,140.37710054027846,30.174508334288817,1,1,0,1
214,48,0,13.68,221.33825567550954,-30.57115877047181,0.98,0,100,0,1,0,0,1,1,100,0.0,0.0,1,1,0,1
215,49,12,0,7.728169645462186,1.018175511527807,1.014,0,14,0,1,0,0,1,1,100,10.522289172559976,1.2202289298176758,1,1,0,1
215,50,12,0,5.7199301149696105,-0.44536524340510386,1.014,0,14,0,1,0,0,1,1,100,14.101060257665814,6.105680017881097,1,1,0,1
215,51,12,0,5.505137260537595,-0.3242599390447136,1.014,0,14,0,1,0,0,1,1,100,10.92543025854975,4.082738599374179,1,1,0,1
215,52,12,0,4.708296969719231,0.26743441661819833,1.014,0,14,0,1,0,0,1,1,100,14.649981820955873,3.648698105290533,1,1,0,1
215,53,12,0,4.739344013482332,-1.0598437744192788,1.014,0,14,0,1,0,0,1,1,100,10.168213613703848,1.2931740052253033,1,1,0,1
215,54,155,0.048,85.82830661535263,-34.718149706255645,1.014,0,182,0,1,0,0,1,1,100,182.66638200893067,57.1053953809198,1,1,0,1
216,55,155,25.22,57.5902402959764,-54.046220294199884,1.017,0,182,0,1,0,0,1,1,100,120.40599664859474,43.854330120491795,1,1,0,1
218,56,400,137.4,175.15744137577713,-131.95190734462818,1.05,0,471,0,1,0,0,1,1,100,292.1085973456502,276.1378076146926,1,1,0,1
221,57,400,108.2,141.31358336657286,-133.0720670428127,1.05,0,471,0,1,0,0,1,1,100,443.56735264882445,156.8221880076453,1,1,0,1
222,58,50,-4.96,11.788058284670115,-11.032718020770698,1.05,0,53,0,1,0,0,1,1,100,53.53385577211156,5.489194917026907,1,1,0,1
222,59,50,-4.96,12.686409575492142,-17.985269347298892,1.05,0,53,0,1,0,0,1,1,100,42.5375119713135,12.500053463753861,1,1,0,1
222,60,50,-4.96,13.564625811576843,-15.094200327061117,1.05,0,53,0,1,0,0,1,1,100,61.19920392055065,30.62026057500041,1,1,0,1
222,61,50,-4.96,16.86605344414711,-14.528570505697282,1.05,0,53,0,1,0,0,1,1,100,63.088684098329395,20.539505160413682,1,1,0,1
222,62,50,-4.96,19.06341719776392,-10.864598606992516,1.05,0,53,0,1,0,0,1,1,100,58.798273359425366,30.071152889525095,1,1,0,1
222,63,50,-4.96,20.21610840409994,-5.393320371489974,1.05,0,53,0,1,0,0,1,1,100,37.467315269168466,13.8774304653538,1,1,0,1
223,64,155,31.79,102.30287601053715,-49.187452087178826,1.05,0,182,0,1,0,0,1,1,100,135.7096495332662,50.25226402314148,1,1,0,1
223,65,155,31.79,65.24787399917841,-72.42389308614656,1.05,0,182,0,1,0,0,1,1,100,165.01658767927438,65.5724930054159,1,1,0,1
223,66,350,71.78,155.39512261748314,-9.729398341150954,1.05,0,412,0,1,0,0,1,1,100,268.6409946507774,56.57573970919469,1,1,0,1
301,67,10,0,7.833115193527192,-5.0287196645513195,1.035,0,24,0,1,0,0,1,1,100,16.437594508752227,11.577986100399869,1,1,0,1
301,68,10,0,9.838583272881806,1.2626035446301103,1.035,0,24,0,1,0,0,1,1,100,16.329185627400875,13.16110166010447,1,1,0,1
301,69,76,14.1,26.045554964337498,-41.54999614902772,1.035,0,89,0,1,0,0,1,1,100,86.05025969427079,19.737701638303704,1,1,0,1
301,70,76,14.1,31.561519421171397,-20.817000617040314,1.035,0,89,0,1,0,0,1,1,100,64.89004754330962,48.635008076141055,1,1,0,1
302,71,10,0,9.025830436497927,1.4251260962337264,1.035,0,24,0,1,0,0,1,1,100,20.295638696290553,14.835686540864408,1,1,0,1
302,72,10,0,11.197638207115233,0.10909568890929222,1.035,0,24,0,1,0,0,1,1,100,24.041966671124104,19.265199296539656,1,1,0,1
302,73,76,7,33.94385705748573,-19.243620614288375,1.035,0,89,0,1,0,0,1,1,100,94.49075335357338,29.64078814316541,1,1,0,1
302,74,76,7,32.55945284105837,-27.61946512758732,1.035,0,89,0,1,0,0,1,1,100,81.7436072776094,6.0385323480143995,1,1,0,1
307,75,80,17.2,67.23114399053156,24.313914773985744,1.025,0,118,0,1,0,0,1,1,100,70.96724990289658,1.5099055517930537,1,1,0,1
307,76,80,17.2,51.71416503097862,-19.294271796941757,1.025,0,118,0,1,0,0,1,1,100,102.4231862463057,5.820708263199776,1,1,0,1
307,77,80,17.2,45.844460899941616,-0.44412374775857444,1.025,0,118,0,1,0,0,1,1,100,120.95953715033829,25.834357311250642,1,1,0,1
313,78,95.1,40.7,77.62190693989396,0.11287617310881615,1.02,0,232,0,1,0,0,1,1,100,248.00778455524707,109.51250393409981,1,1,0,1
313,79,95.1,40.7,100.09887942671776,38.568094823509455,1.02,0,232,0,1,0,0,1,1,100,205.6420987462159,112.49551961420336,1,1,0,1
313,80,95.1,40.7,87.07386274635792,0.1299682818353176,1.02,0,232,0,1,0,0,1,1,100,196.0699767696671,76.22322378678477,1,1,0,1
314,81,0,13.68,215.79931862652302,-71.57887063222006,0.98,0,100,0,1,0,0,1,1,100,0.0,0.0,1,1,0,1
315,82,12,0,7.311532193329185,0.28056783713400435,1.014,0,14,0,1,0,0,1,1,100,8.934245496243237,0.5118708540636235,1,1,0,1
315,83,12,0,5.54370163762942,-1.8369682624004788,1.014,0,14,0,1,0,0,1,1,100,11.53125109244138,0.7775178613141183,1,1,0,1
315,84,12,0,6.9250208979472525,-0.7514642838388674,1.014,0,14,0,1,0,0,1,1,100,13.668655461631715,2.676902580074966,1,1,0,1
315,85,12,0,5.789956966415048,1.4332568055018786,1.014,0,14,0,1,0,0,1,1,100,9.309299959614872,1.6987190971523525,1,1,0,1
315,86,12,0,6.927839490585029,1.7403184890747063,1.014,0,14,0,1,0,0,1,1,100,15.549659411050381,5.520662793405355,1,1,0,1
315,87,155,0.048,71.24456999823451,-51.101355739403516,1.014,0,182,0,1,0,0,1,1,100,131.92255325405858,57.24372941742186,1,1,0,1
316,88,155,25.22,85.5150354206562,-53.00635432358831,1.017,0,182,0,1,0,0,1,1,100,156.7376241267193,37.110890670644594,1,1,0,1
318,89,400,137.4,182.3270335700363,-135.76165287289768,1.05,0,471,0,1,0,0,1,1,100,463.36650278419256,75.50652101635933,1,1,0,1
321,90,400,108.2,238.87497798539695,-1.9707758142613159,1.05,0,471,0,1,0,0,1,1,100,312.2899858467281,62.36486867535859,1,1,0,1
322,91,50,-4.96,16.765442758053542,-3.6637260022573166,1.05,0,53,0,1,0,0,1,1,100,44.043478490784764,11.40772804309785,1,1,0,1
322,92,50,-4.96,19.690662898123264,0.5334357193671195,1.05,0,53,0,1,0,0,1,1,100,41.32300945464522,2.969272022601217,1,1,0,1
322,93,50,-4.96,18.67667642235756,-5.006534914113583,1.05,0,53,0,1,0,0,1,1,100,61.54018208151684,18.24241681024433,1,1,0,1
322,94,50,-4.96,13.569764586538076,-6.941870963666586,1.05,0,53,0,1,0,0,1,1,100,55.38834458449855,6.8194933352060545,1,1,0,1
322,95,50,-4.96,14.061650004982948,-10.215917132794857,1.05,0,53,0,1,0,0,1,1,100,49.76416052784771,10.96981728858784,1,1,0,1
322,96,50,-4.96,20.039412634819747,-6.7538039572536945,1.05,0,53,0,1,0,0,1,1,100,42.73109116591513,42.292453553182455,1,1,0,1
323,97,155,31.79,101.05346470698714,-26.007117797620595,1.05,0,182,0,1,0,0,1,1,100,111.83362616878003,40.731573970650786,1,1,0,1
323,98,155,31.79,76.8962240703404,-84.55241163261235,1.05,0,182,0,1,0,0,1,1,100,132.5588037299458,29.127736653143074,1,1,0,1
323,99,350,71.78,179.60058089112863,-12.056742766872048,1.05,0,412,0,1,0,0,1,1,100,361.97140933945775,140.36345659801736,1,1,0,1
0 / END OF GENERATOR DATA, BEGIN BRANCH DATA
101,102,1,0.003,0.014,0.461,210.0,231.6,240.0,0,0,0,0,1,1,0,1,1
101,103,1,0.055,0.211,0.057,210.0,249.6,264.0,0,0,0,0,1,1,0,1,1
101,105,1,0.022,0.085,0.023,210.0,249.6,264.0,0,0,0,0,1,1,0,1,1
102,104,1,0.033,0.127,0.034,210.0,249.6,264.0,0,0,0,0,1,1,0,1,1
102,106,1,0.05,0.192,0.052,210.0,249.6,264.0,0,0,0,0,1,1,0,1,1
103,109,1,0.031,0.119,0.032,210.0,249.6,264.0,0,0,0,0,1,1,0,1,1
104,109,1,0.027,0.104,0.028,210.0,249.6,264.0,0,0,0,0,1,1,0,1,1
105,110,1,0.023,0.088,0.024,210.0,249.6,264.0,0,0,0,0,1,1,0,1,1
106,110,1,0.014,0.061,2.459,210.0,231.6,240.0,0,0,0,0,1,1,0,1,1
107,108,1,0.016,0.061,0.017,210.0,249.6,264.0,0,0,0,0,1,1,0,1,1
107,203,1,0.042,0.161,0.044,210.0,249.6,264.0,0,0,0,0,1,1,0,1,1
108,109,1,0.043,0.165,0.045,210.0,249.6,264.0,0,0,0,0,1,1,0,1,1
108,110,1,0.043,0.165,0.045,210.0,249.6,264.0,0,0,0,0,1,1,0,1,1
111,113,1,0.006,0.048,0.1,600.0,720.0,750.0,0,0,0,0,1,1,0,1,1
111,114,1,0.005,0.042,0.088,600.0,720.0,750.0,0,0,0,0,1,1,0,1,1
112,113,1,0.006,0.048,0.1,600.0,720.0,750.0,0,0,0,0,1,1,0,1,1
112,123,1,0.012,0.097,0.203,600.0,720.0,750.0,0,0,0,0,1,1,0,1,1
113,123,1,0.011,0.087,0.182,600.0,720.0,750.0,0,0,0,0,1,1,0,1,1
113,215,1,0.01,0.075,0.158,600.0,720.0,750.0,0,0,0,0,1,1,0,1,1
114,116,1,0.005,0.059,0.082,600.0,720.0,750.0,0,0,0,0,1,1,0,1,1
115,116,1,0.002,0.017,0.036,600.0,720.0,750.0,0,0,0,0,1,1,0,1,1
115,121,1,0.006,0.049,0.103,600.0,720.0,750.0,0,0,0,0,1,1,0,1,1
115,121,2,0.006,0.049,0.103,600.0,720.0,750.0,0,0,0,0,1,1,0,1,1
115,124,1,0.007,0.052,0.109,600.0,720.0,750.0,0,0,0,0,1,1,0,1,1
116,117,1,0.003,0.026,0.055,600.0,720.0,750.0,0,0,0,0,1,1,0,1,1
116,119,1,0.003,0.023,0.049,600.0,720.0,750.0,0,0,0,0,1,1,0,1,1
117,118,1,0.002,0.014,0.03,600.0,720.0,750.0,0,0,0,0,1,1,0,1,1
117,122,1,0.014,0.105,0.221,600.0,720.0,750.0,0,0,0,0,1,1,0,1,1
118,121,1,0.003,0.026,0.055,600.0,720.0,750.0,0,0,0,0,1,1,0,1,1
118,121,2,0.003,0.026,0.055,600.0,720.0,750.0,0,0,0,0,1,1,0,1,1
119,120,1,0.005,0.04,0.083,600.0,720.0,750.0,0,0,0,0,1,1,0,1,1
119,120,2,0.005,0.04,0.083,600.0,720.0,750.0,0,0,0,0,1,1,0,1,1
120,123,1,0.003,0.022,0.046,600.0,720.0,750.0,0,0,0,0,1,1,0,1,1
120,123,2,0.003,0.022,0.046,600.0,720.0,750.0,0,0,0,0,1,1,0,1,1
121,122,1,0.009,0.068,0.142,600.0,720.0,750.0,0,0,0,0,1,1,0,1,1
123,217,1,0.01,0.074,0.155,600.0,720.0,750.0,0,0,0,0,1,1,0,1,1
201,202,1,0.003,0.014,0.461,210.0,231.6,240.0,0,0,0,0,1,1,0,1,1
201,203,1,0.055,0.211,0.057,210.0,249.6,264.0,0,0,0,0,1,1,0,1,1
201,205,1,0.022,0.085,0.023,210.0,249.6,264.0,0,0,0,0,1,1,0,1,1
202,204,1,0.033,0.127,0.034,210.0,249.6,264.0,0,0,0,0,1,1,0,1,1
202,206,1,0.05,0.192,0.052,210.0,249.6,264.0,0,0,0,0,1,1,0,1,1
203,209,1,0.031,0.119,0.032,210.0,249.6,264.0,0,0,0,0,1,1,0,1,1
204,209,1,0.027,0.104,0.028,210.0,249.6,264.0,0,0,0,0,1,1,0,1,1
205,210,1,0.023,0.088,0.024,210.0,249.6,264.0,0,0,0,0,1,1,0,1,1
206,210,1,0.014,0.061,2.459,210.0,231.6,240.0,0,0,0,0,1,1,0,1,1
207,208,1,0.016,0.061,0.017,210.0,249.6,264.0,0,0,0,0,1,1,0,1,1
208,209,1,0.043,0.165,0.045,210.0,249.6,264.0,0,0,0,0,1,1,0,1,1
208,210,1,0.043,0.165,0.045,210.0,249.6,264.0,0,0,0,0,1,1,0,1,1
211,213,1,0.006,0.048,0.1,600.0,720.0,750.0,0,0,0,0,1,1,0,1,1
211,214,1,0.005,0.042,0.088,600.0,720.0,750.0,0,0,0,0,1,1,0,1,1
212,213,1,0.006,0.048,0.1,600.0,720.0,750.0,0,0,0,0,1,1,0,1,1
212,223,1,0.012,0.097,0.203,600.0,720.0,750.0,0,0,0,0,1,1,0,1,1
213,223,1,0.011,0.087,0.182,600.0,720.0,750.0,0,0,0,0,1,1,0,1,1
214,216,1,0.005,0.059,0.082,600.0,720.0,750.0,0,0,0,0,1,1,0,1,1
215,216,1,0.002,0.017,0.036,600.0,720.0,750.0,0,0,0,0,1,1,0,1,1
215,221,1,0.006,0.049,0.103,600.0,720.0,750.0,0,0,0,0,1,1,0,1,1
215,221,2,0.006,0.049,0.103,600.0,720.0,750.0,0,0,0,0,1,1,0,1,1
215,224,1,0.007,0.052,0.109,600.0,720.0,750.0,0,0,0,0,1,1,0,1,1
216,217,1,0.003,0.026,0.055,600.0,720.0,750.0,0,0,0,0,1,1,0,1,1
216,219,1,0.003,0.023,0.049,600.0,720.0,750.0,0,0,0,0,1,1,0,1,1
217,218,1,0.002,0.014,0.03,600.0,720.0,750.0,0,0,0,0,1,1,0,1,1
217,222,1,0.014,0.105,0.221,600.0,720.0,750.0,0,0,0,0,1,1,0,1,1
218,221,1,0.003,0.026,0.055,600.0,720.0,750.0,0,0,0,0,1,1,0,1,1
218,221,2,0.003,0.026,0.055,600.0,720.0,750.0,0,0,0,0,1,1,0,1,1
219,220,1,0.005,0.04,0.083,600.0,720.0,750.0,0,0,0,0,1,1,0,1,1
219,220,2,0.005,0.04,0.083,600.0,720.0,750.0,0,0,0,0,1,1,0,1,1
220,223,1,0.003,0.022,0.046,600.0,720.0,750.0,0,0,0,0,1,1,0,1,1
220,223,2,0.003,0.022,0.046,600.0,720.0,750.0,0,0,0,0,1,1,0,1,1
221,222,1,0.009,0.068,0.142,600.0,720.0,750.0,0,0,0,0,1,1,0,1,1
301,302,1,0.003,0.014,0.461,210.0,231.6,240.0,0,0,0,0,1,1,0,1,1
301,303,1,0.055,0.211,0.057,210.0,249.6,264.0,0,0,0,0,1,1,0,1,1
301,305,1,0.022,0.085,0.023,210.0,249.6,264.0,0,0,0,0,1,1,0,1,1
302,304,1,0.033,0.127,0.034,210.0,249.6,264.0,0,0,0,0,1,1,0,1,1
302,306,1,0.05,0.192,0.052,210.0,249.6,264.0,0,0,0,0,1,1,0,1,1
303,309,1,0.031,0.119,0.032,210.0,249.6,264.0,0,0,0,0,1,1,0,1,1
304,309,1,0.027,0.104,0.028,210.0,249.6,264.0,0,0,0,0,1,1,0,1,1
305,310,1,0.023,0.088,0.024,210.0,249.6,264.0,0,0,0,0,1,1,0,1,1
306,310,1,0.014,0.061,2.459,210.0,231.6,240.0,0,0,0,0,1,1,0,1,1
307,308,1,0.016,0.061,0.017,210.0,249.6,264.0,0,0,0,0,1,1,0,1,1
308,309,1,0.043,0.165,0.045,210.0,249.6,264.0,0,0,0,0,1,1,0,1,1
308,310,1,0.043,0.165,0.045,210.0,249.6,264.0,0,0,0,0,1,1,0,1,1
311,313,1,0.006,0.048,0.1,600.0,720.0,750.0,0,0,0,0,1,1,0,1,1
311,314,1,0.005,0.042,0.088,600.0,720.0,750.0,0,0,0,0,1,1,0,1,1
312,313,1,0.006,0.048,0.1,600.0,720.0,750.0,0,0,0,0,1,1,0,1,1
312,323,1,0.012,0.097,0.203,600.0,720.0,750.0,0,0,0,0,1,1,0,1,1
313,323,1,0.011,0.087,0.182,600.0,720.0,750.0,0,0,0,0,1,1,0,1,1
314,316,1,0.005,0.059,0.082,600.0,720.0,750.0,0,0,0,0,1,1,0,1,1
315,316,1,0.002,0.017,0.036,600.0,720.0,750.0,0,0,0,0,1,1,0,1,1
315,321,1,0.006,0.049,0.103,600.0,720.0,750.0,0,0,0,0,1,1,0,1,1
315,321,2,0.006,0.049,0.103,600.0,720.0,750.0,0,0,0,0,1,1,0,1,1
315,324,1,0.007,0.052,0.109,600.0,720.0,750.0,0,0,0,0,1,1,0,1,1
316,317,1,0.003,0.026,0.055,600.0,720.0,750.0,0,0,0,0,1,1,0,1,1
316,319,1,0.003,0.023,0.049,600.0,720.0,750.0,0,0,0,0,1,1,0,1,1
317,318,1,0.002,0.014,0.03,600.0,720.0,750.0,0,0,0,0,1,1,0,1,1
317,322,1,0.014,0.105,0.221,600.0,720.0,750.0,0,0,0,0,1,1,0,1,1
318,223,1,0.013,0.104,0.218,600.0,720.0,750.0,0,0,0,0,1,1,0,1,1
318,321,1,0.003,0.026,0.055,600.0,720.0,750.0,0,0,0,0,1,1,0,1,1
318,321,2,0.003,0.026,0.055,600.0,720.0,750.0,0,0,0,0,1,1,0,1,1
319,320,1,0.005,0.04,0.083,600.0,720.0,750.0,0,0,0,0,1,1,0,1,1
319,320,2,0.005,0.04,0.083,600.0,720.0,750.0,0,0,0,0,1,1,0,1,1
320,323,1,0.003,0.022,0.046,600.0,720.0,750.0,0,0,0,0,1,1,0,1,1
320,323,2,0.003,0.022,0.046,600.0,720.0,750.0,0,0,0,0,1,1,0,1,1
321,322,1,0.009,0.068,0.142,600.0,720.0,750.0,0,0,0,0,1,1,0,1,1
323,325,1,0,0.009,0,866.4,1071.6,1071.6,0,0,0,0,1,1,0,1,1
325,121,1,0.012,0.097,0.203,600.0,720.0,750.0,0,0,0,0,1,1,0,1,1
0 / END OF BRANCH DATA, BEGIN TRANSFORMER DATA
  103 ,  124 , 0,  1 , 1, 1, 1, 0, 0, 2, '            ',  1 , 1, 1
   0.002000 ,  0.084000 ,  100.000000
   1.015000 , 0,  0.000000 ,  400.000000 ,  510.000000 ,  600.000000 , 0, 0,  1.10 ,  0.90 ,  1.10 ,  0.90 , 33, 0, 0, 0
   1.000000, 0
  109 ,  111 , 0,  1 , 1, 1, 1, 0, 0, 2, '            ',  1 , 1, 1
   0.002000 ,  0.084000 ,  100.000000
   1.030000 , 0,  0.000000 ,  400.000000 ,  510.000000 ,  600.000000 , 0, 0,  1.10 ,  0.90 ,  1.10 ,  0.90 , 33, 0, 0, 0
   1.000000, 0
  109 ,  112 , 0,  1 , 1, 1, 1, 0, 0, 2, '            ',  1 , 1, 1
   0.002000 ,  0.084000 ,  100.000000
   1.030000 , 0,  0.000000 ,  400.000000 ,  510.000000 ,  600.000000 , 0, 0,  1.10 ,  0.90 ,  1.10 ,  0.90 , 33, 0, 0, 0
   1.000000, 0
  110 ,  111 , 0,  1 , 1, 1, 1, 0, 0, 2, '            ',  1 , 1, 1
   0.002000 ,  0.084000 ,  100.000000
   1.015000 , 0,  0.000000 ,  400.000000 ,  510.000000 ,  600.000000 , 0, 0,  1.10 ,  0.90 ,  1.10 ,  0.90 , 33, 0, 0, 0
   1.000000, 0
  110 ,  112 , 0,  1 , 1, 1, 1, 0, 0, 2, '            ',  1 , 1, 1
   0.002000 ,  0.084000 ,  100.000000
   1.015000 , 0,  0.000000 ,  400.000000 ,  510.000000 ,  600.000000 , 0, 0,  1.10 ,  0.90 ,  1.10 ,  0.90 , 33, 0, 0, 0
   1.000000, 0
  203 ,  224 , 0,  1 , 1, 1, 1, 0, 0, 2, '            ',  1 , 1, 1
   0.002000 ,  0.084000 ,  100.000000
   1.015000 , 0,  0.000000 ,  400.000000 ,  510.000000 ,  600.000000 , 0, 0,  1.10 ,  0.90 ,  1.10 ,  0.90 , 33, 0, 0, 0
   1.000000, 0
  209 ,  211 , 0,  1 , 1, 1, 1, 0, 0, 2, '            ',  1 , 1, 1
   0.002000 ,  0.084000 ,  100.000000
   1.030000 , 0,  0.000000 ,  400.000000 ,  510.000000 ,  600.000000 , 0, 0,  1.10 ,  0.90 ,  1.10 ,  0.90 , 33, 0, 0, 0
   1.000000, 0
  209 ,  212 , 0,  1 , 1, 1, 1, 0, 0, 2, '            ',  1 , 1, 1
   0.002000 ,  0.084000 ,  100.000000
   1.030000 , 0,  0.000000 ,  400.000000 ,  510.000000 ,  600.000000 , 0, 0,  1.10 ,  0.90 ,  1.10 ,  0.90 , 33, 0, 0, 0
   1.000000, 0
  210 ,  211 , 0,  1 , 1, 1, 1, 0, 0, 2, '            ',  1 , 1, 1
   0.002000 ,  0.084000 ,  100.000000
   1.015000 , 0,  0.000000 ,  400.000000 ,  510.000000 ,  600.000000 , 0, 0,  1.10 ,  0.90 ,  1.10 ,  0.90 , 33, 0, 0, 0
   1.000000, 0
  210 ,  212 , 0,  1 , 1, 1, 1, 0, 0, 2, '            ',  1 , 1, 1
   0.002000 ,  0.084000 ,  100.000000
   1.015000 , 0,  0.000000 ,  400.000000 ,  510.000000 ,  600.000000 , 0, 0,  1.10 ,  0.90 ,  1.10 ,  0.90 , 33, 0, 0, 0
   1.000000, 0
  303 ,  324 , 0,  1 , 1, 1, 1, 0, 0, 2, '            ',  1 , 1, 1
   0.002000 ,  0.084000 ,  100.000000
   1.015000 , 0,  0.000000 ,  400.000000 ,  510.000000 ,  600.000000 , 0, 0,  1.10 ,  0.90 ,  1.10 ,  0.90 , 33, 0, 0, 0
   1.000000, 0
  309 ,  311 , 0,  1 , 1, 1, 1, 0, 0, 2, '            ',  1 , 1, 1
   0.002000 ,  0.084000 ,  100.000000
   1.030000 , 0,  0.000000 ,  400.000000 ,  510.000000 ,  600.000000 , 0, 0,  1.10 ,  0.90 ,  1.10 ,  0.90 , 33, 0, 0, 0
   1.000000, 0
  309 ,  312 , 0,  1 , 1, 1, 1, 0, 0, 2, '            ',  1 , 1, 1
   0.002000 ,  0.084000 ,  100.000000
   1.030000 , 0,  0.000000 ,  400.000000 ,  510.000000 ,  600.000000 , 0, 0,  1.10 ,  0.90 ,  1.10 ,  0.90 , 33, 0, 0, 0
   1.000000, 0
  310 ,  311 , 0,  1 , 1, 1, 1, 0, 0, 2, '            ',  1 , 1, 1
   0.002000 ,  0.084000 ,  100.000000
   1.015000 , 0,  0.000000 ,  400.000000 ,  510.000000 ,  600.000000 , 0, 0,  1.10 ,  0.90 ,  1.10 ,  0.90 , 33, 0, 0, 0
   1.000000, 0
  310 ,  312 , 0,  1 , 1, 1, 1, 0, 0, 2, '            ',  1 , 1, 1
   0.002000 ,  0.084000 ,  100.000000
   1.015000 , 0,  0.000000 ,  400.000000 ,  510.000000 ,  600.000000 , 0, 0,  1.10 ,  0.90 ,  1.10 ,  0.90 , 33, 0, 0, 0
   1.000000, 0
0 / END OF TRANSFORMER DATA, BEGIN AREA DATA
0 / END OF AREA DATA, BEGIN TWO-TERMINAL DC DATA
0 / END OF TWO-TERMINAL DC DATA, BEGIN VSC DC LINE DATA
0 / END OF VSC DC LINE DATA, BEGIN SWITCHED SHUNT DATA
0 / END OF SWITCHED SHUNT DATA, BEGIN IMPEDANCE CORRECTION DATA
0 / END OF IMPEDANCE CORRECTION DATA, BEGIN MULTI-TERMINAL DC DATA
0 / END OF MULTI-TERMINAL DC DATA, BEGIN MULTI-SECTION LINE DATA
0 / END OF MULTI-SECTION LINE DATA, BEGIN ZONE DATA
0 / END OF ZONE DATA, BEGIN INTER-AREA TRANSFER DATA
0 / END OF INTER-AREA TRANSFER DATA, BEGIN OWNER DATA
0 / END OF OWNER DATA, BEGIN FACTS CONTROL DEVICE DATA
0 / END OF FACTS CONTROL DEVICE DATA
0 / END OF SWITCHED SHUNT DATA, BEGIN GNE DATA
0 / END OF GNE DATA, BEGIN INDUCTION MACHINE DATA
0 / END OF INDUCTION MACHINE DATA
Q 
